[TITLE]
BWFLnet, modified version of the network published in 
Waldron, A., Pecci, F., & Stoianov, I. (2019). BWFLnet + data. Mendeley Data. h

[JUNCTIONS]
 node_0001                            37.1254
 node_0002                            37.1200
 node_0003                            37.1200
 node_0004                            84.3444
 node_0005                            84.3700
 node_0006                            84.3700
 node_0007                            84.3687
 node_0008                            84.3700
 node_0009                            84.3700
 node_0010                            36.5700
 node_0011                            36.5700
 node_0012                            84.0900
 node_0013                            84.0900
 node_0014                            84.0625
 node_0015                            83.6078
 node_0016                            83.6700
 node_0017                            83.6700
 node_0018                            83.6277
 node_0019                            83.6200
 node_0020                            83.6200
 node_0021                            83.4400
 node_0022                            83.4400
 node_0023                            83.9509
 node_0024                            83.9700
 node_0025                            83.9700
 node_0026                            83.6124
 node_0027                            83.4058
 node_0028                            80.3243
 node_0029                            42.3876
 node_0030                            28.8481
 node_0031                            28.4500
 node_0032                            28.4500
 node_0033                            42.2338
 node_0034                            42.2100
 node_0035                            42.2100
 node_0036                            42.2100
 node_0037                            42.2100
 node_0038                            37.4726
 node_0039                            37.4400
 node_0040                            37.4400
 node_0041                            42.3049
 node_0042                            42.4400
 node_0043                            42.4400
 node_0044                            81.8400
 node_0045                            81.8400
 node_0046                            45.3500
 node_0047                            45.3500
 node_0048                            81.8248
 node_0049                            83.3200
 node_0050                            83.3200
 node_0051                            45.4300
 node_0052                            45.4300
 node_0053                            81.8400
 node_0054                            81.8400
 node_0055                            83.2958
 node_0056                            45.3955
 node_0057                            81.8400
 node_0058                            81.8400
 node_0059                            83.3200
 node_0060                            83.3200
 node_0061                            82.2500
 node_0062                            82.2500
 node_0063                            82.2343
 node_0064                            14.7300
 node_0065                            14.7300
 node_0066                            83.1800
 node_0067                            83.1800
 node_0068                            14.8300
 node_0069                            14.8300
 node_0070                            14.9345
 node_0071                            83.0766
 node_0072                            83.1000
 node_0073                            83.1000
 node_0074                            83.1000
 node_0075                            83.1000
 node_0076                            83.1760
 node_0077                            83.2100
 node_0078                            83.2100
 node_0079                            43.4300
 node_0080                            43.4300
 node_0081                            44.4700
 node_0082                            44.4700
 node_0083                            44.5036
 node_0084                            44.6100
 node_0085                            44.6100
 node_0087                            45.6136
 node_0088                            45.6700
 node_0089                            45.6700
 node_0090                            16.7907
 node_0091                            82.4900
 node_0092                            82.4900
 node_0095                            82.4546
 node_0096                            25.4946
 node_0097                            45.9000
 node_0098                            45.9000
 node_0099                            45.2400
 node_0100                            45.2400
 node_0101                            37.1582
 node_0102                            24.8500
 node_0103                            24.8500
 node_0104                            45.3284
 node_0105                            74.6000
 node_0106                            74.6000
 node_0107                            25.2192
 node_0108                            74.6182
 node_0109                            45.6400
 node_0110                            45.6400
 node_0111                            45.3795
 node_0112                            45.3800
 node_0113                            45.3800
 node_0114                            24.9600
 node_0115                            24.9600
 node_0116                            25.2997
 node_0117                            25.1000
 node_0118                            25.1000
 node_0119                            25.3800
 node_0120                            25.3800
 node_0121                            25.4300
 node_0122                            25.4300
 node_0123                            25.5600
 node_0124                            25.5600
 node_0125                            26.4000
 node_0126                            26.4000
 node_0127                            23.5510
 node_0128                            23.5510
 node_0129                            82.6100
 node_0130                            82.6100
 node_0131                            15.4400
 node_0132                            15.4400
 node_0133                            82.5226
 node_0134                            27.3081
 node_0135                            82.5700
 node_0136                            82.5700
 node_0138                            42.0000
 node_0139                            42.0000
 node_0140                            27.6710
 node_0141                            27.6700
 node_0142                            82.5700
 node_0143                            82.5700
 node_0144                            15.8703
 node_0145                            16.0350
 node_0146                            27.0400
 node_0147                            27.0400
 node_0149                            82.4903
 node_0150                            82.5300
 node_0151                            82.5300
 node_0152                            15.6600
 node_0153                            15.6600
 node_0154                            28.1212
 node_0155                            40.1000
 node_0156                            40.1000
 node_0157                            29.1300
 node_0158                            29.1300
 node_0159                            40.2148
 node_0160                            15.9176
 node_0161                            27.8295
 node_0162                            16.1900
 node_0163                            16.1900
 node_0164                            40.2300
 node_0165                            40.2300
 node_0166                            15.9800
 node_0167                            15.9800
 node_0168                            27.4613
 node_0169                            27.4200
 node_0170                            27.4200
 node_0171                            27.4200
 node_0172                            27.4200
 node_0173                            30.0899
 node_0174                            30.2400
 node_0175                            30.2400
 node_0176                            73.6526
 node_0177                            73.6300
 node_0178                            73.6300
 node_0179                            50.5400
 node_0180                            50.5400
 node_0181                            77.6100
 node_0182                            77.6100
 node_0183                            77.6743
 node_0184                            77.8900
 node_0185                            77.8900
 node_0186                            50.5071
 node_0187                            71.4100
 node_0188                            71.4100
 node_0189                            77.6100
 node_0190                            77.6100
 node_0191                            71.4373
 node_0192                            50.1100
 node_0193                            50.1100
 node_0194                            50.0968
 node_0195                            42.0761
 node_0196                            44.4000
 node_0197                            44.4000
 node_0198                            46.1000
 node_0199                            46.1000
 node_0200                            46.0899
 node_0201                            42.7570
 node_0202                            50.0500
 node_0203                            50.0500
 node_0204                            50.2100
 node_0205                            50.2100
 node_0206                            50.0453
 node_0207                            77.6800
 node_0208                            77.6800
 node_0209                            50.2098
 node_0210                            77.5134
 node_0211                            77.6800
 node_0212                            77.6800
 node_0213                            50.2600
 node_0214                            50.2600
 node_0215                            77.2000
 node_0216                            77.2000
 node_0217                            50.1506
 node_0218                            50.1800
 node_0219                            50.1800
 node_0220                            70.1600
 node_0221                            70.1600
 node_0222                            49.7500
 node_0223                            49.7500
 node_0224                            70.1884
 node_0225                            70.3293
 node_0226                            49.7224
 node_0227                            70.1600
 node_0228                            70.1600
 node_0229                            47.3500
 node_0230                            47.3500
 node_0231                            47.2606
 node_0232                            67.6600
 node_0233                            67.6600
 node_0234                            67.6732
 node_0235                            67.6600
 node_0236                            67.6600
 node_0237                            46.8400
 node_0238                            46.8400
 node_0239                            46.8184
 node_0240                            68.0396
 node_0241                            71.6000
 node_0242                            71.6000
 node_0243                            71.5100
 node_0244                            71.5100
 node_0245                            44.4687
 node_0246                            71.5625
 node_0247                            71.6000
 node_0248                            71.6000
 node_0253                            71.1102
 node_0254                            72.1747
 node_0255                            71.0800
 node_0256                            71.0800
 node_0257                            72.1600
 node_0258                            72.1600
 node_0259                            71.8637
 node_0260                            71.8500
 node_0261                            71.8500
 node_0262                            34.7201
 node_0263                            72.3615
 node_0265                            72.3300
 node_0266                            72.3300
 node_0267                            72.3294
 node_0268                            65.9600
 node_0269                            72.3296
 node_0270                            72.3300
 node_0271                            72.3300
 node_0272                            65.9569
 node_0275                            72.2700
 node_0276                            72.2700
 node_0278                            61.2100
 node_0279                            61.1900
 node_0283                            65.9011
 node_0286                            65.9200
 node_0287                            65.9200
 node_0288                            46.0505
 node_0289                            65.9333
 node_0290                            61.5877
 node_0291                            61.4900
 node_0292                            46.0125
 node_0293                            45.9500
 node_0294                            45.9500
 node_0295                            46.2100
 node_0296                            46.2100
 node_0297                            46.1861
 node_0298                            62.1577
 node_0299                            46.0500
 node_0300                            46.0500
 node_0301                            72.3500
 node_0302                            72.3500
 node_0303                            50.8676
 node_0304                            46.0896
 node_0305                            35.7300
 node_0306                            35.7300
 node_0307                            72.3961
 node_0308                            50.9300
 node_0309                            50.9300
 node_0310                            46.5100
 node_0311                            46.5100
 node_0312                            46.5490
 node_0315                            36.3200
 node_0316                            36.3200
 node_0318                            61.1824
 node_0319                            36.3200
 node_0320                            36.3200
 node_0322                            61.2100
 node_0323                            61.2100
 node_0326                            61.1600
 node_0327                            61.1600
 node_0328                            61.1465
 node_0331                            46.9071
 node_0332                            73.1800
 node_0333                            73.1800
 node_0334                            73.1801
 node_0335                            73.3600
 node_0336                            73.3600
 node_0337                            72.9900
 node_0338                            72.9900
 node_0339                            73.3900
 node_0340                            73.3900
 node_0341                            73.3857
 node_0342                            72.8200
 node_0343                            72.8200
 node_0344                            66.0400
 node_0345                            66.0400
 node_0346                            48.3182
 node_0347                            72.8508
 node_0348                            66.0585
 node_0349                            60.3488
 node_0350                            66.0600
 node_0351                            66.0600
 node_0352                            66.0600
 node_0353                            66.0600
 node_0355                            47.7400
 node_0356                            47.7400
 node_0357                            73.2012
 node_0358                            50.9107
 node_0359                            50.8900
 node_0360                            50.8900
 node_0361                            50.8617
 node_0362                            50.9200
 node_0363                            50.9200
 node_0364                            47.7400
 node_0365                            47.7400
 node_0366                            60.7900
 node_0368                            58.7000
 node_0370                            59.0222
 node_0371                            50.9400
 node_0372                            50.9400
 node_0373                            50.9270
 node_0374                            66.0500
 node_0375                            66.0500
 node_0376                            66.0500
 node_0377                            66.0500
 node_0378                            73.0581
 node_0379                            72.0700
 node_0380                            72.0700
 node_0381                            73.0500
 node_0382                            73.0500
 node_0383                            72.0700
 node_0384                            72.0700
 node_0385                            66.0500
 node_0386                            66.0500
 node_0387                            73.0647
 node_0388                            72.0935
 node_0390                            37.7351
 node_0391                            50.8938
 node_0392                            73.3200
 node_0393                            73.3200
 node_0394                            73.3405
 node_0395                            73.3300
 node_0396                            73.3700
 node_0397                            73.3700
 node_0398                            50.8700
 node_0399                            50.8700
 node_0400                            73.3000
 node_0401                            73.3000
 node_0402                            66.2200
 node_0403                            66.2200
 node_0404                            66.2380
 node_0405                            66.2500
 node_0406                            66.2500
 node_0407                            72.9983
 node_0408                            72.9900
 node_0409                            72.9900
 node_0410                            70.1663
 node_0411                            66.2700
 node_0412                            66.2700
 node_0413                            66.2331
 node_0414                            73.0600
 node_0415                            73.0600
 node_0416                            73.0635
 node_0417                            50.5461
 node_0418                            73.8500
 node_0419                            73.8500
 node_0420                            50.5800
 node_0421                            50.5800
 node_0422                            73.8439
 node_0424                            49.2084
 node_0425                            49.1901
 node_0426                            45.0432
 node_0427                            49.4800
 node_0428                            49.4800
 node_0429                            49.4800
 node_0430                            49.4800
 node_0431                            73.6400
 node_0432                            73.6400
 node_0433                            73.6430
 node_0434                            73.1483
 node_0435                            73.1700
 node_0436                            73.1700
 node_0437                            73.7069
 node_0438                            49.0073
 node_0439                            73.6900
 node_0440                            73.6900
 node_0441                            73.7800
 node_0442                            73.7800
 node_0443                            49.0309
 node_0444                            73.5100
 node_0445                            73.5100
 node_0446                            73.5812
 node_0447                            73.5900
 node_0448                            73.5900
 node_0449                            73.5805
 node_0450                            73.6384
 node_0453                            73.9200
 node_0454                            39.2400
 node_0455                            39.2400
 node_0456                            73.6409
 node_0457                            73.6249
 node_0458                            72.9300
 node_0459                            72.9300
 node_0460                            73.7020
 node_0463                            73.6700
 node_0464                            73.6700
 node_0465                            73.6146
 node_0466                            73.7500
 node_0467                            73.7500
 node_0468                            73.4490
 node_0469                            73.4490
 node_0470                            73.0200
 node_0471                            72.7300
 node_0472                            72.7300
 node_0473                            39.5514
 node_0474                            39.7000
 node_0475                            39.5400
 node_0476                            39.5400
 node_0477                            40.0100
 node_0478                            40.0100
 node_0479                            40.1600
 node_0480                            40.1600
 node_0481                            40.1600
 node_0482                            40.1600
 node_0483                            41.7500
 node_0484                            41.7500
 node_0485                            40.6000
 node_0486                            41.7181
 node_0487                            74.3900
 node_0488                            48.2609
 node_0489                            41.4800
 node_0490                            41.4800
 node_0491                            41.4663
 node_0492                            41.4800
 node_0493                            41.4800
 node_0494                            41.4800
 node_0495                            41.7219
 node_0496                            41.7600
 node_0497                            41.7600
 node_0498                            41.7100
 node_0499                            41.7100
 node_0500                            41.6838
 node_0503                            51.5803
 node_0504                            51.7100
 node_0505                            51.7100
 node_0506                            51.7100
 node_0507                            41.5600
 node_0508                            63.0100
 node_0511                            44.2020
 node_0512                            44.1900
 node_0513                            44.1900
 node_0514                            41.9500
 node_0515                            41.9500
 node_0516                            41.9600
 node_0517                            41.9413
 node_0518                            50.5244
 node_0521                            67.7270
 node_0522                            49.5200
 node_0523                            49.5200
 node_0524                            42.0100
 node_0525                            42.0100
 node_0526                            49.7548
 node_0527                            41.5409
 node_0528                            65.6010
 node_0529                            41.5900
 node_0530                            41.5900
 node_0531                            65.6082
 node_0532                            65.6100
 node_0533                            65.6100
 node_0536                            65.6544
 node_0548                            65.7500
 node_0549                            65.7500
 node_0550                            67.0255
 node_0551                            65.7471
 node_0552                            46.4319
 node_0553                            67.0300
 node_0554                            67.0300
 node_0555                            67.6962
 node_0556                            67.6900
 node_0557                            67.6900
 node_0558                            52.4554
 node_0559                            52.5305
 node_0562                            65.6772
 node_0563                            52.4800
 node_0564                            52.4800
 node_0565                            65.6800
 node_0566                            65.6800
 node_0567                            65.5900
 node_0568                            65.5900
 node_0570                            65.7900
 node_0571                            64.5225
 node_0572                            64.5500
 node_0573                            64.5500
 node_0574                            64.5100
 node_0575                            64.5100
 node_0576                            42.7789
 node_0577                            42.8000
 node_0578                            42.8000
 node_0579                            64.5107
 node_0580                            65.1900
 node_0581                            65.1900
 node_0582                            47.4100
 node_0583                            47.4100
 node_0584                            47.5340
 node_0585                            65.1900
 node_0586                            65.1900
 node_0587                            65.1680
 node_0588                            47.5900
 node_0589                            47.5900
 node_0590                            65.1864
 node_0592                            55.0672
 node_0593                            40.8551
 node_0594                            40.8500
 node_0595                            40.8500
 node_0596                            42.5000
 node_0597                            42.5000
 node_0598                            52.9400
 node_0599                            52.9400
 node_0600                            52.9459
 node_0601                            42.4799
 node_0602                            52.9990
 node_0608                            53.0210
 node_0609                            52.6344
 node_0610                            53.0100
 node_0611                            53.0100
 node_0612                            53.0100
 node_0613                            53.0100
 node_0614                            53.0214
 node_0618                            53.0479
 node_0619                            53.0900
 node_0620                            53.0900
 node_0621                            53.0900
 node_0622                            53.0900
 node_0623                            53.0457
 node_0624                            40.9300
 node_0625                            40.9300
 node_0626                            50.0500
 node_0627                            50.1177
 node_0628                            50.1500
 node_0629                            50.1500
 node_0630                            50.0500
 node_0631                            50.0500
 node_0632                            50.1501
 node_0633                            50.1900
 node_0634                            50.1900
 node_0635                            41.1870
 node_0636                            50.4700
 node_0637                            41.0800
 node_0638                            41.2484
 node_0639                            41.2200
 node_0640                            42.3179
 node_0641                            55.6400
 node_0642                            55.6400
 node_0643                            53.2345
 node_0644                            55.9500
 node_0645                            55.9500
 node_0646                            42.3600
 node_0647                            42.3600
 node_0648                            42.5150
 node_0649                            56.0700
 node_0650                            56.0700
 node_0651                            56.0315
 node_0652                            56.0286
 node_0653                            42.3774
 node_0654                            53.7357
 node_0655                            64.4618
 node_0656                            56.0697
 node_0657                            58.3784
 node_0658                            58.4200
 node_0659                            58.4200
 node_0660                            53.7314
 node_0661                            53.7300
 node_0662                            53.7300
 node_0663                            53.7330
 node_0664                            53.7300
 node_0665                            53.7300
 node_0666                            53.7315
 node_0667                            53.7763
 node_0668                            53.7899
 node_0669                            53.8000
 node_0670                            53.8000
 node_0671                            51.1300
 node_0672                            53.8000
 node_0673                            53.8000
 node_0674                            53.8000
 node_0675                            53.8000
 node_0676                            53.8033
 node_0677                            53.8700
 node_0678                            53.8700
 node_0679                            53.8437
 node_0680                            53.8176
 node_0681                            53.9400
 node_0682                            53.9400
 node_0683                            54.7610
 node_0684                            54.7610
 node_0685                            53.9516
 node_0686                            51.5662
 node_0689                            54.0000
 node_0690                            54.0000
 node_0691                            53.9910
 node_0692                            52.8900
 node_0693                            51.8400
 node_0694                            56.6238
 node_0695                            44.6300
 node_0696                            44.6300
 node_0697                            51.9604
 node_0698                            44.6189
 node_0699                            56.7300
 node_0700                            56.7300
 node_0701                            51.8900
 node_0702                            51.8900
 node_0703                            54.1996
 node_0704                            54.1800
 node_0705                            54.1800
 node_0708                            54.2486
 node_0709                            54.4172
 node_0710                            54.4500
 node_0711                            54.4500
 node_0712                            42.5628
 node_0713                            54.8700
 node_0714                            54.8700
 node_0715                            54.8262
 node_0716                            42.5000
 node_0717                            42.5000
 node_0718                            42.5096