[TITLE]

[JUNCTIONS]
 node_0001                            27.9652  ;				
 node_0002                            48.2573  ;				
 node_0003                            51.5597  ;				
 node_0004                            44.5459  ;				
 node_0005                            39.0019  ;				
 node_0006                            39.5100  ;				
 node_0007                            42.6043  ;				
 node_0008                            47.4372  ;				
 node_0009                            18.4078  ;				
 node_0010                            15.4442  ;				
 node_0011                            54.1720  ;				
 node_0012                            46.6132  ;				
 node_0013                            52.0783  ;				
 node_0014                            46.8222  ;				
 node_0015                            51.3052  ;				
 node_0016                            49.2051  ;				
 node_0017                            49.9548  ;				
 node_0018                            51.2422  ;				
 node_0019                            41.2296  ;				
 node_0020                            42.6382  ;				
 node_0021                            42.3086  ;				
 node_0022                            41.5139  ;				
 node_0023                            24.8629  ;				
 node_0024                            15.6241  ;				
 node_0025                            15.4915  ;				
 node_0026                            24.8451  ;				
 node_0027                            24.8525  ;				
 node_0028                            39.9870  ;				
 node_0029                            65.6525  ;				
 node_0030                            65.3707  ;				
 node_0031                            66.0805  ;				
 node_0032                            60.2093  ;				
 node_0033                            60.4792  ;				
 node_0034                            66.1311  ;				
 node_0035                            75.8888  ;				
 node_0036                            77.0559  ;				
 node_0037                            60.4980  ;				
 node_0038                            62.1613  ;				
 node_0039                            61.3394  ;				
 node_0040                            60.4960  ;				
 node_0041                            62.8886  ;				
 node_0042                            57.1466  ;				
 node_0043                            58.2280  ;				
 node_0044                            58.6026  ;				
 node_0045                            53.5972  ;				
 node_0046                            58.2707  ;				
 node_0047                            57.6102  ;				
 node_0048                            61.6100  ;				
 node_0049                            62.8718  ;				
 node_0050                            64.6832  ;				
 node_0051                            64.3971  ;				
 node_0052                            64.8762  ;				
 node_0053                            64.8510  ;				
 node_0054                            52.9800  ;				
 node_0055                            56.7600  ;				
 node_0056                            48.1796  ;				
 node_0057                            60.2521  ;				
 node_0058                            59.7756  ;				
 node_0059                            56.4705  ;				
 node_0060                            54.0840  ;				
 node_0061                            55.5572  ;				
 node_0062                            55.1537  ;				
 node_0063                            55.1989  ;				
 node_0064                            54.5443  ;				
 node_0065                            54.4323  ;				
 node_0066                            54.4553  ;				
 node_0067                            54.1723  ;				
 node_0068                            54.1791  ;				
 node_0069                            54.2060  ;				
 node_0070                            54.1595  ;				
 node_0071                            54.1596  ;				
 node_0072                            49.8809  ;				
 node_0073                            44.5197  ;				
 node_0074                            42.8870  ;				
 node_0075                            42.4053  ;				
 node_0076                            44.1595  ;				
 node_0077                            43.4123  ;				
 node_0078                            45.1390  ;				
 node_0079                            42.5526  ;				
 node_0080                            44.5081  ;				
 node_0081                            45.1809  ;				
 node_0082                            45.2852  ;				
 node_0083                            45.2101  ;				
 node_0084                            44.9113  ;				
 node_0085                            45.1626  ;				
 node_0086                            45.1797  ;				
 node_0087                            44.3349  ;				
 node_0088                            44.8102  ;				
 node_0089                            44.4068  ;				
 node_0090                            42.8964  ;				
 node_0091                            43.5073  ;				
 node_0092                            66.1484  ;				
 node_0093                            66.1421  ;				
 node_0094                            63.4499  ;				
 node_0095                            65.6733  ;				
 node_0096                            66.1685  ;				
 node_0097                            66.1691  ;				
 node_0098                            68.3073  ;				
 node_0099                            67.0768  ;				
 node_0100                            69.1023  ;				
 node_0101                            69.1006  ;				
 node_0102                            69.1060  ;				
 node_0103                            70.5736  ;				
 node_0104                            66.4500  ;				
 node_0105                            68.1469  ;				
 node_0106                            72.6983  ;				
 node_0107                            72.5867  ;				
 node_0108                            71.4547  ;				
 node_0109                            74.6248  ;				
 node_0110                            76.1397  ;				
 node_0111                            76.7066  ;				
 node_0112                            74.9813  ;				
 node_0113                            75.4722  ;				
 node_0114                            72.7690  ;				
 node_0115                            73.1154  ;				
 node_0116                            73.5801  ;				
 node_0117                            66.1474  ;				
 node_0118                            66.1480  ;				
 node_0119                            56.7333  ;				
 node_0120                            60.2822  ;				
 node_0121                            60.0998  ;				
 node_0122                            57.3944  ;				
 node_0123                            58.2546  ;				
 node_0124                            58.8243  ;				
 node_0125                            59.8333  ;				
 node_0126                            63.7602  ;				
 node_0127                            75.5112  ;				
 node_0128                            60.0476  ;				
 node_0129                            55.8652  ;				
 node_0130                            58.1406  ;				
 node_0131                            57.6235  ;				
 node_0132                            54.6099  ;				
 node_0133                            54.9575  ;				
 node_0134                            60.4605  ;				
 node_0135                            57.3358  ;				
 node_0136                            55.7015  ;				
 node_0137                            59.9920  ;				
 node_0138                            59.5354  ;				
 node_0139                            59.6340  ;				
 node_0140                            60.9983  ;				
 node_0141                            60.9085  ;				
 node_0142                            60.5795  ;				
 node_0143                            56.9911  ;				
 node_0144                            56.9657  ;				
 node_0145                            52.5365  ;				
 node_0146                            52.6804  ;				
 node_0147                            52.4682  ;				
 node_0148                            45.9589  ;				
 node_0149                            46.7398  ;				
 node_0150                            43.3809  ;				
 node_0151                            45.5002  ;				
 node_0152                            44.8096  ;				
 node_0153                            46.0485  ;				
 node_0154                            45.2299  ;				
 node_0155                            47.4195  ;				
 node_0156                            69.4501  ;				
 node_0157                            75.1480  ;				
 node_0158                            75.1100  ;				
 node_0159                            73.9297  ;				
 node_0160                            74.3279  ;				
 node_0161                            71.0382  ;				
 node_0162                            69.2366  ;				
 node_0163                            68.4734  ;				
 node_0164                            71.8800  ;				
 node_0165                            71.5210  ;				
 node_0166                            74.5000  ;				
 node_0167                            76.2700  ;				
 node_0168                            86.6507  ;				
 node_0169                            82.8680  ;				
 node_0170                            81.1736  ;				
 node_0171                            84.3100  ;				
 node_0172                            77.1818  ;				
 node_0173                            77.3552  ;				
 node_0174                            77.0369  ;				
 node_0175                            77.0590  ;				
 node_0176                            77.0864  ;				
 node_0177                            77.0965  ;				
 node_0178                            77.1063  ;				
 node_0179                            77.0978  ;				
 node_0180                            68.7349  ;				
 node_0181                            68.5339  ;				
 node_0182                            53.7311  ;				
 node_0183                            56.2779  ;				
 node_0184                            57.0260  ;				
 node_0185                            56.2797  ;				
 node_0186                            60.9126  ;				
 node_0187                            62.1219  ;				
 node_0188                            54.4034  ;				
 node_0189                            86.2683  ;				
 node_0190                            86.6946  ;				
 node_0191                            83.7482  ;				
 node_0192                            87.1300  ;				
 node_0193                            74.2498  ;				
 node_0194                            71.8800  ;				
 node_0195                            74.8549  ;				
 node_0196                            73.7949  ;				
 node_0197                            78.0331  ;				
 node_0198                            76.8090  ;				
 node_0199                            81.4463  ;				
 node_0200                            81.6105  ;				
 node_0201                            84.7914  ;				
 node_0202                            65.4678  ;				
 node_0203                            62.5656  ;				
 node_0204                            62.5661  ;				
 node_0205                            65.4498  ;				
 node_0206                            72.6537  ;				
 node_0207                            72.6948  ;				
 node_0208                            67.3309  ;				
 node_0209                            68.4638  ;				
 node_0210                            70.4429  ;				
 node_0211                            70.5237  ;				
 node_0212                            68.9115  ;				
 node_0213                            68.8492  ;				
 node_0214                            68.6732  ;				
 node_0215                            68.5696  ;				
 node_0216                            67.8863  ;				
 node_0217                            65.1800  ;				
 node_0218                            89.5153  ;				
 node_0219                            87.0256  ;				
 node_0220                            87.9028  ;				
 node_0221                            86.3179  ;				
 node_0222                            83.6900  ;				
 node_0223                            83.3317  ;				
 node_0224                            77.0604  ;				
 node_0225                            78.3013  ;				
 node_0226                            87.1870  ;				
 node_0227                            87.0064  ;				
 node_0228                            87.1870  ;				
 node_0229                            51.5481  ;				
 node_0230                            41.6603  ;				
 node_0231                            46.4623  ;				
 node_0232                            62.4233  ;				
 node_0233                            61.8149  ;				
 node_0234                            60.3648  ;				
 node_0235                            60.4119  ;				
 node_0236                            59.1920  ;				
 node_0237                            53.2537  ;				
 node_0238                            49.7775  ;				
 node_0239                            48.7125  ;				
 node_0240                            48.5471  ;				
 node_0241                            54.1509  ;				
 node_0242                            54.1342  ;				
 node_0243                            45.3465  ;				
 node_0244                            44.4554  ;				
 node_0245                            81.7931  ;				
 node_0246                            79.7290  ;				
 node_0247                            75.8514  ;				
 node_0248                            77.8451  ;				
 node_0249                            86.3300  ;				
 node_0250                            78.9400  ;				
 node_0251                            65.5785  ;				
 node_0252                            57.8320  ;				
 node_0253                            61.2486  ;				
 node_0254                            60.5206  ;				
 node_0255                            57.3600  ;				
 node_0256                            61.3904  ;				
 node_0257                            63.8534  ;				
 node_0258                            70.9848  ;				
 node_0259                            81.1093  ;				
 node_0260                            83.8340  ;				
 node_0261                            81.3100  ;				
 node_0262                            81.5254  ;				
 node_0263                            85.8445  ;				
 node_0264                            89.0348  ;				
 node_0265                            73.6899  ;				
 node_0266                            78.8185  ;				
 node_0267                            75.7997  ;				
 node_0268                            81.6044  ;				
 node_0269                            81.4802  ;				
 node_0270                            81.0223  ;				
 node_0271                            80.7500  ;				
 node_0272                            79.6400  ;				
 node_0273                            75.4193  ;				
 node_0274                            75.9077  ;				
 node_0275                            74.3686  ;				
 node_0276                            76.1141  ;				
 node_0277                            63.6896  ;				
 node_0278                            63.7050  ;				
 node_0279                            65.4904  ;				
 node_0280                            71.2735  ;				
 node_0281                            68.1800  ;				
 node_0282                            68.4776  ;				
 node_0283                            74.0400  ;				
 node_0284                            68.6730  ;				
 node_0285                            69.9537  ;				
 node_0286                            72.9187  ;				
 node_0287                            42.2597  ;				
 node_0288                            44.1100  ;				
 node_0289                            36.2626  ;				
 node_0290                            41.7713  ;				
 node_0291                            56.9694  ;				
 node_0292                            56.9203  ;				
 node_0293                            58.4481  ;				
 node_0294                            62.8100  ;				
 node_0295                            66.0815  ;				
 node_0296                            42.2497  ;				
 node_0297                            24.9433  ;				
 node_0298                            24.9131  ;				
 node_0299                            24.8787  ;				
 node_0300                            24.8709  ;				
 node_0301                            58.2985  ;				
 node_0302                            50.5566  ;				
 node_0303                            54.4326  ;				
 node_0304                            54.5199  ;				
 node_0305                            54.4853  ;				
 node_0306                            55.1411  ;				
 node_0307                            60.4794  ;				
 node_0308                            73.2998  ;				
 node_0309                            73.5247  ;				
 node_0310                            47.1684  ;				
 node_0311                            90.0311  ;				
 node_0312                            42.7182  ;				
 node_0313                            75.0437  ;				
 node_0314                            58.3361  ;				
 node_0315                            57.6038  ;				
 node_0316                            83.3983  ;				
 node_0317                            86.7783  ;				
 node_0318                            89.2698  ;				
 node_0319                            89.5360  ;				
 node_0320                            77.0874  ;				
 node_0321                            72.5950  ;				
 node_0322                            84.0449  ;				
 node_0323                            68.3848  ;				
 node_0324                            49.8886  ;				
 node_0325                            73.4581  ;				
 node_0326                            54.0813  ;				
 node_0327                            24.8334  ;				
 node_0328                            24.9067  ;				
 node_0329                            46.4635  ;				
 node_0330                            78.9869  ;				
 node_0331                            76.0474  ;				
 node_0332                            63.5848  ;				
 node_0333                            75.1228  ;				
 node_0334                            65.3100  ;				
 node_0335                            66.2233  ;				
 node_0336                            66.2775  ;				
 node_0337                            81.4813  ;				
 node_0338                            81.5291  ;				
 node_0339                            53.4350  ;				
 node_0340                            55.6646  ;				
 node_0341                            55.4205  ;				
 node_0342                            84.4674  ;				
 node_0343                            69.5181  ;				
 node_0344                            89.6108  ;				
 node_0345                            89.4861  ;				
 node_0346                            89.5000  ;				
 node_0347                            90.0291  ;				
 node_0348                            58.3852  ;				
 node_0349                            58.2554  ;				
 node_0350                            69.6451  ;				
 node_0351                            81.4401  ;				
 node_0352                            76.9987  ;				
 node_0353                            89.2571  ;				
 node_0354                            81.5907  ;				
 node_0355                            71.1426  ;				
 node_0356                            68.6901  ;				
 node_0357                            77.6173  ;				
 node_0358                            15.4843  ;				
 node_0359                            48.2556  ;				
 node_0360                            52.9313  ;				
 node_0361                            57.0041  ;				
 node_0362                            66.1746  ;				
 node_0363                            66.1287  ;				
 node_0364                            66.1219  ;				
 node_0365                            15.0698  ;				
 node_0366                            15.2196  ;				
 node_0367                            15.4576  ;				
 node_0368                            56.1531  ;				
 node_0369                            90.2353  ;				
 node_0370                            90.0675  ;				
 node_0371                            42.4500  ;				
 node_0372                            45.2200  ;				
 node_0373                            65.3073  ;				
 node_0374                            65.3103  ;				
 node_0375                            44.5459  ;				
 node_0376                            55.8103  ;				
 node_0377                            64.9879  ;				
 node_0378                            63.4800  ;				
 node_0379                            54.0952  ;				
 node_0380                            90.1085  ;				
 node_0381                            73.3027  ;				
 node_0382                            71.5586  ;				
 node_0383                            73.9049  ;				
 node_0384                            73.9792  ;				
 node_0385                            71.4714  ;				
 node_0386                            82.6010  ;				
 node_0387                            82.4163  ;				
 node_0388                            77.5716  ;				
 node_0389                            82.5201  ;				
 node_0390                            81.9132  ;				
 node_0391                            70.5479  ;				
 node_0392                            83.9535  ;				
 node_0393                            83.9539  ;				
 node_0394                            84.3194  ;				
 node_0395                            82.2690  ;				
 node_0396                            66.0595  ;				
 node_0397                            63.5504  ;				
 node_0398                            72.7239  ;				
 node_0399                            72.9462  ;				
 node_0400                            71.6591  ;				
 node_0401                            85.9492  ;				
 node_0402                            72.3152  ;				
 node_0403                            73.8838  ;				
 node_0404                            82.2504  ;				
 node_0405                            81.8498  ;				
 node_0406                            84.9502  ;				
 node_0407                            83.7666  ;				
 node_0408                            84.9537  ;				
 node_0409                            85.8715  ;				
 node_0410                            82.7808  ;				
 node_0411                            59.8678  ;				
 node_0412                            64.9773  ;				
 node_0413                            83.9664  ;				
 node_0414                            71.5549  ;				
 node_0415                            66.1900  ;				
 node_0416                            73.4775  ;				
 node_0417                            66.1900  ;				
 node_0418                            54.5583  ;				
 node_0419                            60.2835  ;				
 node_0420                            60.4848  ;				
 node_0421                            60.5196  ;				
 node_0422                            62.7521  ;				
 node_0423                            59.7747  ;				
 node_0424                            56.0524  ;				
 node_0425                            60.2836  ;				
 node_0426                            60.2965  ;				
 node_0427                            59.3116  ;				
 node_0428                            59.7402  ;				
 node_0429                            53.5065  ;				
 node_0430                            61.9200  ;				
 node_0431                            62.5209  ;				
 node_0432                            63.0906  ;				
 node_0433                            60.1669  ;				
 node_0434                            62.4124  ;				
 node_0435                            62.1189  ;				
 node_0436                            56.3861  ;				
 node_0437                            57.6350  ;				
 node_0438                            68.9057  ;				
 node_0439                            66.5570  ;				
 node_0440                            61.0391  ;				
 node_0441                            73.8934  ;				
 node_0442                            66.5847  ;				
 node_0443                            66.5528  ;				
 node_0444                            72.0565  ;				
 node_0445                            56.0021  ;				
 node_0446                            65.3100  ;				
 node_0447                            67.0154  ;				
 node_0448                            53.9309  ;				
 node_0449                            60.3110  ;				
 node_0450                            62.4119  ;				
 node_0451                            57.0787  ;				
 node_0452                            57.2106  ;				
 node_0453                            68.7999  ;				
 node_0454                            68.8684  ;				
 node_0455                            72.7635  ;				
 node_0456                            73.7803  ;				
 node_0457                            44.1100  ;				
 node_0458                            54.0472  ;				
 node_0459                            63.7327  ;				
 node_0460                            76.9540  ;				
 node_0461                            69.6100  ;				
 node_0462                            60.0592  ;				
 node_0463                            77.0044  ;				
 node_0464                            63.7050  ;				
 node_0465                            60.6504  ;				
 node_0466                            61.7598  ;				
 node_0467                            72.6640  ;				
 node_0468                            34.9142  ;				
 node_0469                            24.9281  ;				
 node_0470                            46.3894  ;				
 node_0471                            59.5427  ;				
 node_0472                            53.7579  ;				
 node_0473                            57.8872  ;				
 node_0474                            57.8792  ;				
 node_0475                            69.6871  ;				
 node_0476                            55.3943  ;				
 node_0477                            73.6064  ;				
 node_0478                            73.4678  ;				
 node_0479                            54.7797  ;				
 node_0480                            64.2457  ;				
 node_0481                            42.3908  ;				
 node_0482                            53.7010  ;				
 node_0483                            51.8623  ;				
 node_0484                            52.2034  ;				
 node_0485                            59.3293  ;				
 node_0486                            59.0970  ;				
 node_0487                            55.2794  ;				
 node_0488                            60.1878  ;				
 node_0489                            90.2191  ;				
 node_0490                            89.7452  ;				
 node_0491                            96.9801  ;				
 node_0492                            96.9660  ;				
 node_0493                            96.9579  ;				
 node_0494                            43.6750  ;				
 node_0495                            42.6257  ;				
 node_0496                            42.7154  ;				
 node_0497                            42.4585  ;				
 node_0498                            50.3150  ;				
 node_0499                            44.6285  ;				
 node_0500                            41.4363  ;				
 node_0501                            58.4157  ;				
 node_0502                            56.2777  ;				
 node_0503                            55.0210  ;				
 node_0504                            57.6442  ;				
 node_0505                            60.9126  ;				
 node_0506                            64.2494  ;				
 node_0507                            61.2558  ;				
 node_0508                            60.4633  ;				
 node_0509                            56.7775  ;				
 node_0510                            57.3185  ;				
 node_0511                            59.9945  ;				
 node_0512                            60.1751  ;				
 node_0513                            61.3520  ;				
 node_0514                            58.2026  ;				
 node_0515                            55.1793  ;				
 node_0516                            53.7070  ;				
 node_0517                            54.9564  ;				
 node_0518                            56.9704  ;				
 node_0519                            36.1599  ;				
 node_0520                            36.9593  ;				
 node_0521                            50.1088  ;				
 node_0522                            52.1432  ;				
 node_0523                            51.4500  ;				
 node_0524                            45.4431  ;				
 node_0525                            44.6289  ;				
 node_0526                            43.3216  ;				
 node_0527                            43.6266  ;				
 node_0528                            44.8132  ;				
 node_0529                            47.4142  ;				
 node_0530                            46.4060  ;				
 node_0531                            47.0277  ;				
 node_0532                            47.2074  ;				
 node_0533                            45.6182  ;				
 node_0534                            50.0167  ;				
 node_0535                            49.7041  ;				
 node_0536                            50.1590  ;				
 node_0537                            24.8367  ;				
 node_0538                            20.4135  ;				
 node_0539                            15.6385  ;				
 node_0540                            22.5385  ;				
 node_0541                            55.1118  ;				
 node_0542                            54.5428  ;				
 node_0543                            54.5058  ;				
 node_0544                            54.1100  ;				
 node_0545                            15.4986  ;				
 node_0546                            15.1328  ;				
 node_0547                            54.7169  ;				
 node_0548                            55.3713  ;				
 node_0549                            41.6413  ;				
 node_0550                            43.4270  ;				
 node_0551                            45.2165  ;				
 node_0552                            45.1699  ;				
 node_0553                            45.7541  ;				
 node_0554                            45.7677  ;				
 node_0555                            43.8919  ;				
 node_0556                            45.9568  ;				
 node_0557                            42.3371  ;				
 node_0558                            43.1317  ;				
 node_0559                            45.9919  ;				
 node_0560                            41.0686  ;				
 node_0561                            42.8162  ;				
 node_0562                            65.3008  ;				
 node_0563                            65.3112  ;				
 node_0564                            59.4970  ;				
 node_0565                            68.4112  ;				