[TITLE]


[JUNCTIONS]
;ID              	Elev        	Demand      	Pattern         
 node_0001       	27.965236   	0.003846    	                	;				
 node_0002       	48.2573     	0.007437    	                	;				
 node_0003       	51.559723   	0.003846    	                	;				
 node_0004       	44.545853   	0.003846    	                	;				
 node_0005       	39.001898   	0.003846    	                	;				
 node_0006       	39.51       	0.003846    	                	;				
 node_0007       	42.604299   	0.003846    	                	;				
 node_0008       	47.437245   	0.003846    	                	;				
 node_0009       	18.407785   	0.003846    	                	;				
 node_0010       	15.444212   	0.003846    	                	;				
 node_0011       	54.171954   	0.003846    	                	;				
 node_0012       	46.613206   	0.003846    	                	;				
 node_0013       	52.07827    	0.003846    	                	;				
 node_0014       	46.822226   	0.003846    	                	;				
 node_0015       	51.305197   	0.003846    	                	;				
 node_0016       	49.205102   	0.003846    	                	;				
 node_0017       	49.954792   	0.003846    	                	;				
 node_0018       	51.242215   	0.003846    	                	;				
 node_0019       	41.229555   	0.003846    	                	;				
 node_0020       	42.638169   	0.003846    	                	;				
 node_0021       	42.30857    	0.003846    	                	;				
 node_0022       	41.51386    	0.003846    	                	;				
 node_0023       	24.862866   	0.003846    	                	;				
 node_0024       	15.624059   	0.003846    	                	;				
 node_0025       	15.491523   	0.003846    	                	;				
 node_0026       	24.845056   	0.003846    	                	;				
 node_0027       	24.852542   	0.003846    	                	;				
 node_0028       	39.986989   	0.003846    	                	;				
 node_0029       	65.652533   	0.003846    	                	;				
 node_0030       	65.370665   	0.003846    	                	;				
 node_0031       	66.080524   	0.003846    	                	;				
 node_0032       	60.209334   	0.003846    	                	;				
 node_0033       	60.479176   	0.003846    	                	;				
 node_0034       	66.131125   	0.007437    	                	;				
 node_0035       	75.88879    	0.007437    	                	;				
 node_0036       	77.055856   	0.007437    	                	;				
 node_0037       	60.498025   	0.007437    	                	;				
 node_0038       	62.161263   	0.007437    	                	;				
 node_0039       	61.339364   	0.007437    	                	;				
 node_0040       	60.495963   	0.007437    	                	;				
 node_0041       	62.888644   	0.007437    	                	;				
 node_0042       	57.146566   	0.007437    	                	;				
 node_0043       	58.227954   	0.007437    	                	;				
 node_0044       	58.602572   	0.007437    	                	;				
 node_0045       	53.597238   	0.007437    	                	;				
 node_0046       	58.270687   	0.007437    	                	;				
 node_0047       	57.610183   	0.007437    	                	;				
 node_0048       	61.61       	0.007437    	                	;				
 node_0049       	62.871838   	0.007437    	                	;				
 node_0050       	64.68317    	0.007437    	                	;				
 node_0051       	64.397147   	0.007437    	                	;				
 node_0052       	64.876175   	0.007437    	                	;				
 node_0053       	64.850954   	0.007437    	                	;				
 node_0054       	52.98       	0.007437    	                	;				
 node_0055       	56.76       	0.007437    	                	;				
 node_0056       	48.179567   	0.007437    	                	;				
 node_0057       	60.252123   	0.007437    	                	;				
 node_0058       	59.775641   	0.007437    	                	;				
 node_0059       	56.470534   	0.003846    	                	;				
 node_0060       	54.084005   	0.007437    	                	;				
 node_0061       	55.557185   	0.007437    	                	;				
 node_0062       	55.153731   	0.007437    	                	;				
 node_0063       	55.198894   	0.007437    	                	;				
 node_0064       	54.544316   	0.003846    	                	;				
 node_0065       	54.432323   	0.003846    	                	;				
 node_0066       	54.45532    	0.003846    	                	;				
 node_0067       	54.172261   	0.003846    	                	;				
 node_0068       	54.179102   	0.003846    	                	;				
 node_0069       	54.206049   	0.003846    	                	;				
 node_0070       	54.159509   	0.003846    	                	;				
 node_0071       	54.159611   	0.003846    	                	;				
 node_0072       	49.880939   	0.003846    	                	;				
 node_0073       	44.519714   	0.003846    	                	;				
 node_0074       	42.886984   	0.003846    	                	;				
 node_0075       	42.405297   	0.003846    	                	;				
 node_0076       	44.159507   	0.003846    	                	;				
 node_0077       	43.412316   	0.003846    	                	;				
 node_0078       	45.139019   	0.003846    	                	;				
 node_0079       	42.552615   	0.003846    	                	;				
 node_0080       	44.508096   	0.003846    	                	;				
 node_0081       	45.180859   	0.003846    	                	;				
 node_0082       	45.285168   	0.003846    	                	;				
 node_0083       	45.210055   	0.003846    	                	;				
 node_0084       	44.911325   	0.003846    	                	;				
 node_0085       	45.162553   	0.003846    	                	;				
 node_0086       	45.179744   	0.003846    	                	;				
 node_0087       	44.334901   	0.003846    	                	;				
 node_0088       	44.810154   	0.003846    	                	;				
 node_0089       	44.406762   	0.003846    	                	;				
 node_0090       	42.896425   	0.003846    	                	;				
 node_0091       	43.507262   	0.003846    	                	;				
 node_0092       	66.148406   	0.007437    	                	;				
 node_0093       	66.142056   	0.007437    	                	;				
 node_0094       	63.449902   	0.007437    	                	;				
 node_0095       	65.673344   	0.007437    	                	;				
 node_0096       	66.168492   	0.007437    	                	;				
 node_0097       	66.169113   	0.007437    	                	;				
 node_0098       	68.307264   	0.007437    	                	;				
 node_0099       	67.076808   	0.007437    	                	;				
 node_0100       	69.102283   	0.007437    	                	;				
 node_0101       	69.100564   	0.007437    	                	;				
 node_0102       	69.105985   	0.007437    	                	;				
 node_0103       	70.573627   	0.007437    	                	;				
 node_0104       	66.45       	0.007437    	                	;				
 node_0105       	68.146867   	0.007437    	                	;				
 node_0106       	72.698334   	0.007437    	                	;				
 node_0107       	72.586727   	0.007437    	                	;				
 node_0108       	71.454688   	0.007437    	                	;				
 node_0109       	74.624795   	0.007437    	                	;				
 node_0110       	76.139675   	0.007437    	                	;				
 node_0111       	76.706597   	0.007437    	                	;				
 node_0112       	74.981293   	0.007437    	                	;				
 node_0113       	75.472234   	0.007437    	                	;				
 node_0114       	72.768993   	0.007437    	                	;				
 node_0115       	73.115356   	0.007437    	                	;				
 node_0116       	73.580072   	0.007437    	                	;				
 node_0117       	66.147378   	0.007437    	                	;				
 node_0118       	66.148009   	0.007437    	                	;				
 node_0119       	56.733339   	0.003846    	                	;				
 node_0120       	60.282231   	0.003846    	                	;				
 node_0121       	60.099755   	0.003846    	                	;				
 node_0122       	57.394396   	0.003846    	                	;				
 node_0123       	58.254639   	0.003846    	                	;				
 node_0124       	58.824272   	0.003846    	                	;				
 node_0125       	59.833311   	0.003846    	                	;				
 node_0126       	63.760215   	0.003846    	                	;				
 node_0127       	75.511177   	0.007437    	                	;				
 node_0128       	60.047581   	0.007437    	                	;				
 node_0129       	55.865195   	0.007437    	                	;				
 node_0130       	58.14058    	0.007437    	                	;				
 node_0131       	57.623499   	0.007437    	                	;				
 node_0132       	54.609864   	0.003846    	                	;				
 node_0133       	54.957472   	0.003846    	                	;				
 node_0134       	60.460504   	0.003846    	                	;				
 node_0135       	57.335776   	0.003846    	                	;				
 node_0136       	55.701527   	0.003846    	                	;				
 node_0137       	59.991981   	0.003846    	                	;				
 node_0138       	59.535368   	0.003846    	                	;				
 node_0139       	59.634023   	0.003846    	                	;				
 node_0140       	60.998275   	0.003846    	                	;				
 node_0141       	60.908467   	0.003846    	                	;				
 node_0142       	60.579501   	0.003846    	                	;				
 node_0143       	56.991076   	0.003846    	                	;				
 node_0144       	56.965719   	0.003846    	                	;				
 node_0145       	52.536542   	0.003846    	                	;				
 node_0146       	52.680429   	0.003846    	                	;				
 node_0147       	52.468161   	0.003846    	                	;				
 node_0148       	45.958939   	0.003846    	                	;				
 node_0149       	46.739813   	0.003846    	                	;				
 node_0150       	43.380909   	0.003846    	                	;				
 node_0151       	45.500229   	0.003846    	                	;				
 node_0152       	44.809588   	0.003846    	                	;				
 node_0153       	46.048533   	0.003846    	                	;				
 node_0154       	45.229945   	0.003846    	                	;				
 node_0155       	47.419518   	0.003846    	                	;				
 node_0156       	69.450076   	0.007437    	                	;				
 node_0157       	75.147959   	0.007437    	                	;				
 node_0158       	75.11       	0.007437    	                	;				
 node_0159       	73.929742   	0.007437    	                	;				
 node_0160       	74.327932   	0.007437    	                	;				
 node_0161       	71.038249   	0.007437    	                	;				
 node_0162       	69.236619   	0.007437    	                	;				
 node_0163       	68.473374   	0.007437    	                	;				
 node_0164       	71.88       	0.007437    	                	;				
 node_0165       	71.52103    	0.007437    	                	;				
 node_0166       	74.5        	0.007437    	                	;				
 node_0167       	76.27       	0.007437    	                	;				
 node_0168       	86.650652   	0.007437    	                	;				
 node_0169       	82.867988   	0.007437    	                	;				
 node_0170       	81.173619   	0.007437    	                	;				
 node_0171       	84.31       	0.007437    	                	;				
 node_0172       	77.181758   	0.007437    	                	;				
 node_0173       	77.355188   	0.007437    	                	;				
 node_0174       	77.036947   	0.007437    	                	;				
 node_0175       	77.059031   	0.007437    	                	;				
 node_0176       	77.08641    	0.007437    	                	;				
 node_0177       	77.096463   	0.007437    	                	;				
 node_0178       	77.106314   	0.007437    	                	;				
 node_0179       	77.097825   	0.007437    	                	;				
 node_0180       	68.734949   	0.007437    	                	;				
 node_0181       	68.533876   	0.007437    	                	;				
 node_0182       	53.731072   	0.003846    	                	;				
 node_0183       	56.277871   	0.003846    	                	;				
 node_0184       	57.025992   	0.003846    	                	;				
 node_0185       	56.279682   	0.003846    	                	;				
 node_0186       	60.912646   	0.003846    	                	;				
 node_0187       	62.121944   	0.003846    	                	;				
 node_0188       	54.403447   	0.003846    	                	;				
 node_0189       	86.268313   	0.007437    	                	;				
 node_0190       	86.694636   	0.007437    	                	;				
 node_0191       	83.748171   	0.007437    	                	;				
 node_0192       	87.13       	0.007437    	                	;				
 node_0193       	74.249784   	0.007437    	                	;				
 node_0194       	71.88       	0.007437    	                	;				
 node_0195       	74.85486    	0.007437    	                	;				
 node_0196       	73.794885   	0.007437    	                	;				
 node_0197       	78.033057   	0.007437    	                	;				
 node_0198       	76.809025   	0.007437    	                	;				
 node_0199       	81.446319   	0.007437    	                	;				
 node_0200       	81.610456   	0.007437    	                	;				
 node_0201       	84.791425   	0.007437    	                	;				
 node_0202       	65.467815   	0.007437    	                	;				
 node_0203       	62.56563    	0.007437    	                	;				
 node_0204       	62.566104   	0.007437    	                	;				
 node_0205       	65.449757   	0.007437    	                	;				
 node_0206       	72.653715   	0.007437    	                	;				
 node_0207       	72.694788   	0.007437    	                	;				
 node_0208       	67.330905   	0.007437    	                	;				
 node_0209       	68.463849   	0.007437    	                	;				
 node_0210       	70.44285    	0.007437    	                	;				
 node_0211       	70.523663   	0.007437    	                	;				
 node_0212       	68.911549   	0.007437    	                	;				
 node_0213       	68.849172   	0.007437    	                	;				
 node_0214       	68.673187   	0.007437    	                	;				
 node_0215       	68.569631   	0.007437    	                	;				
 node_0216       	67.886326   	0.007437    	                	;				
 node_0217       	65.18       	0.007437    	                	;				
 node_0218       	89.515266   	0.007437    	                	;				
 node_0219       	87.025601   	0.007437    	                	;				
 node_0220       	87.902773   	0.007437    	                	;				
 node_0221       	86.317871   	0.007437    	                	;				
 node_0222       	83.69       	0.007437    	                	;				
 node_0223       	83.331657   	0.007437    	                	;				
 node_0224       	77.060449   	0.007437    	                	;				
 node_0225       	78.301332   	0.007437    	                	;				
 node_0226       	87.187      	0.007437    	                	;				
 node_0227       	87.006356   	0.007437    	                	;				
 node_0228       	87.187      	0.007437    	                	;				
 node_0229       	51.548112   	0.007437    	                	;				
 node_0230       	41.660344   	0.003846    	                	;				
 node_0231       	46.462348   	0.003846    	                	;				
 node_0232       	62.423342   	0.007437    	                	;				
 node_0233       	61.814862   	0.007437    	                	;				
 node_0234       	60.36478    	0.007437    	                	;				
 node_0235       	60.411871   	0.007437    	                	;				
 node_0236       	59.192009   	0.007437    	                	;				
 node_0237       	53.253653   	0.007437    	                	;				
 node_0238       	49.7775     	0.007437    	                	;				
 node_0239       	48.712527   	0.007437    	                	;				
 node_0240       	48.547095   	0.007437    	                	;				
 node_0241       	54.150875   	0.003846    	                	;				
 node_0242       	54.134238   	0.003846    	                	;				
 node_0243       	45.346466   	0.003846    	                	;				
 node_0244       	44.455416   	0.003846    	                	;				
 node_0245       	81.793074   	0.007437    	                	;				
 node_0246       	79.728984   	0.007437    	                	;				
 node_0247       	75.851416   	0.007437    	                	;				
 node_0248       	77.845117   	0.007437    	                	;				
 node_0249       	86.33       	0.007437    	                	;				
 node_0250       	78.94       	0.007437    	                	;				
 node_0251       	65.578522   	0.007437    	                	;				
 node_0252       	57.831969   	0.003846    	                	;				
 node_0253       	61.248613   	0.003846    	                	;				
 node_0254       	60.520629   	0.003846    	                	;				
 node_0255       	57.36       	0.003846    	                	;				
 node_0256       	61.390359   	0.003846    	                	;				
 node_0257       	63.853366   	0.007437    	                	;				
 node_0258       	70.984801   	0.007437    	                	;				
 node_0259       	81.109302   	0.007437    	                	;				
 node_0260       	83.833989   	0.007437    	                	;				
 node_0261       	81.31       	0.007437    	                	;				
 node_0262       	81.525361   	0.007437    	                	;				
 node_0263       	85.844545   	0.007437    	                	;				
 node_0264       	89.034791   	0.007437    	                	;				
 node_0265       	73.689919   	0.007437    	                	;				
 node_0266       	78.818507   	0.007437    	                	;				
 node_0267       	75.799718   	0.007437    	                	;				
 node_0268       	81.60439    	0.007437    	                	;				
 node_0269       	81.480238   	0.007437    	                	;				
 node_0270       	81.022303   	0.007437    	                	;				
 node_0271       	80.75       	0.007437    	                	;				
 node_0272       	79.64       	0.007437    	                	;				
 node_0273       	75.419338   	0.007437    	                	;				
 node_0274       	75.907657   	0.007437    	                	;				
 node_0275       	74.368578   	0.007437    	                	;				
 node_0276       	76.114073   	0.007437    	                	;				
 node_0277       	63.689592   	0.007437    	                	;				
 node_0278       	63.705      	0.007437    	                	;				
 node_0279       	65.490373   	0.007437    	                	;				
 node_0280       	71.273516   	0.007437    	                	;				
 node_0281       	68.18       	0.007437    	                	;				
 node_0282       	68.477603   	0.007437    	                	;				
 node_0283       	74.04       	0.007437    	                	;				
 node_0284       	68.672982   	0.007437    	                	;				
 node_0285       	69.953733   	0.007437    	                	;				
 node_0286       	72.918685   	0.007437    	                	;				
 node_0287       	42.259709   	0.003846    	                	;				
 node_0288       	44.11       	0.003846    	                	;				
 node_0289       	36.262616   	0.003846    	                	;				
 node_0290       	41.771256   	0.003846    	                	;				
 node_0291       	56.969361   	0.007437    	                	;				
 node_0292       	56.92029    	0.007437    	                	;				
 node_0293       	58.448088   	0.007437    	                	;				
 node_0294       	62.81       	0.007437    	                	;				
 node_0295       	66.081545   	0.003846    	                	;				
 node_0296       	42.249713   	0.003846    	                	;				
 node_0297       	24.94329    	0.003846    	                	;				
 node_0298       	24.913064   	0.003846    	                	;				
 node_0299       	24.878676   	0.003846    	                	;				
 node_0300       	24.870931   	0.003846    	                	;				
 node_0301       	58.298463   	0.007437    	                	;				
 node_0302       	50.556602   	0.007437    	                	;				
 node_0303       	54.432578   	0.003846    	                	;				
 node_0304       	54.519856   	0.003846    	                	;				
 node_0305       	54.485301   	0.003846    	                	;				
 node_0306       	55.14112    	0.003846    	                	;				
 node_0307       	60.479395   	0.003846    	                	;				
 node_0308       	73.299802   	0.003846    	                	;				
 node_0309       	73.524657   	0.003846    	                	;				
 node_0310       	47.168446   	0.003846    	                	;				
 node_0311       	90.031141   	0.007437    	                	;				
 node_0312       	42.718187   	0.003846    	                	;				
 node_0313       	75.043703   	0.007437    	                	;				
 node_0314       	58.3361     	0.007437    	                	;				
 node_0315       	57.603842   	0.007437    	                	;				
 node_0316       	83.398285   	0.007437    	                	;				
 node_0317       	86.778275   	0.007437    	                	;				
 node_0318       	89.269808   	0.007437    	                	;				
 node_0319       	89.535951   	0.007437    	                	;				
 node_0320       	77.087364   	0.007437    	                	;				
 node_0321       	72.594965   	0.007437    	                	;				
 node_0322       	84.044937   	0.007437    	                	;				
 node_0323       	68.384788   	0.007437    	                	;				
 node_0324       	49.88862    	0.003846    	                	;				
 node_0325       	73.458066   	0.003846    	                	;				
 node_0326       	54.08127    	0.003846    	                	;				
 node_0327       	24.833353   	0.003846    	                	;				
 node_0328       	24.906652   	0.003846    	                	;				
 node_0329       	46.463472   	0.003846    	                	;				
 node_0330       	78.986919   	0.007437    	                	;				
 node_0331       	76.047353   	0.007437    	                	;				
 node_0332       	63.584795   	0.007437    	                	;				
 node_0333       	75.122832   	0.007437    	                	;				
 node_0334       	65.31       	0.003846    	                	;				
 node_0335       	66.223326   	0.003846    	                	;				
 node_0336       	66.277463   	0.003846    	                	;				
 node_0337       	81.481346   	0.007437    	                	;				
 node_0338       	81.529076   	0.007437    	                	;				
 node_0339       	53.434956   	0.003846    	                	;				
 node_0340       	55.664594   	0.003846    	                	;				
 node_0341       	55.4205     	0.003846    	                	;				
 node_0342       	84.467415   	0.007437    	                	;				
 node_0343       	69.518058   	0.007437    	                	;				
 node_0344       	89.610752   	0.007437    	                	;				
 node_0345       	89.486137   	0.007437    	                	;				
 node_0346       	89.500041   	0.007437    	                	;				
 node_0347       	90.029118   	0.007437    	                	;				
 node_0348       	58.385163   	0.007437    	                	;				
 node_0349       	58.255383   	0.007437    	                	;				
 node_0350       	69.645126   	0.007437    	                	;				
 node_0351       	81.440114   	0.007437    	                	;				
 node_0352       	76.998673   	0.007437    	                	;				
 node_0353       	89.257096   	0.007437    	                	;				
 node_0354       	81.590745   	0.007437    	                	;				
 node_0355       	71.142555   	0.007437    	                	;				
 node_0356       	68.690131   	0.007437    	                	;				
 node_0357       	77.61734    	0.007437    	                	;				
 node_0358       	15.484285   	0.003846    	                	;				
 node_0359       	48.255572   	0.007437    	                	;				
 node_0360       	52.931328   	0.007437    	                	;				
 node_0361       	57.004102   	0.007437    	                	;				
 node_0362       	66.174616   	0.003846    	                	;				
 node_0363       	66.128701   	0.003846    	                	;				
 node_0364       	66.121929   	0.003846    	                	;				
 node_0365       	15.069807   	0.003846    	                	;				
 node_0366       	15.219566   	0.003846    	                	;				
 node_0367       	15.45764    	0.003846    	                	;				
 node_0368       	56.153125   	0.007437    	                	;				
 node_0369       	90.235261   	0.007437    	                	;				
 node_0370       	90.067542   	0.007437    	                	;				
 node_0371       	42.45       	0.007437    	                	;				
 node_0372       	45.22       	0.007437    	                	;				
 node_0373       	65.307253   	0.003846    	                	;				
 node_0374       	65.310289   	0.003846    	                	;				
 node_0375       	44.545881   	0.003846    	                	;				
 node_0376       	55.810254   	0.003846    	                	;				
 node_0377       	64.987918   	0.003846    	                	;				
 node_0378       	63.48       	0.007437    	                	;				
 node_0379       	54.095182   	0.007437    	                	;				
 node_0380       	90.108463   	0.007437    	                	;				
 node_0381       	73.302738   	0.003846    	                	;				
 node_0382       	71.558626   	0.003846    	                	;				
 node_0383       	73.904919   	0.003846    	                	;				
 node_0384       	73.979151   	0.003846    	                	;				
 node_0385       	71.47138    	0.003846    	                	;				
 node_0386       	82.600981   	0.003846    	                	;				
 node_0387       	82.416284   	0.003846    	                	;				
 node_0388       	77.571608   	0.003846    	                	;				
 node_0389       	82.520059   	0.003846    	                	;				
 node_0390       	81.913235   	0.003846    	                	;				
 node_0391       	70.547949   	0.003846    	                	;				
 node_0392       	83.953472   	0.003846    	                	;				
 node_0393       	83.953913   	0.003846    	                	;				
 node_0394       	84.319405   	0.003846    	                	;				
 node_0395       	82.268977   	0.003846    	                	;				
 node_0396       	66.059475   	0.007437    	                	;				
 node_0397       	63.550351   	0.007437    	                	;				
 node_0398       	72.723928   	0.003846    	                	;				
 node_0399       	72.946165   	0.003846    	                	;				
 node_0400       	71.659131   	0.003846    	                	;				
 node_0401       	85.949242   	0.007437    	                	;				
 node_0402       	72.315226   	0.003846    	                	;				
 node_0403       	73.883754   	0.003846    	                	;				
 node_0404       	82.250433   	0.003846    	                	;				
 node_0405       	81.849802   	0.003846    	                	;				
 node_0406       	84.950166   	0.003846    	                	;				
 node_0407       	83.766623   	0.003846    	                	;				
 node_0408       	84.953656   	0.003846    	                	;				
 node_0409       	85.871533   	0.007437    	                	;				
 node_0410       	82.780809   	0.003846    	                	;				
 node_0411       	59.867804   	0.003846    	                	;				
 node_0412       	64.977258   	0.003846    	                	;				
 node_0413       	83.966366   	0.003846    	                	;				
 node_0414       	71.554937   	0.003846    	                	;				
 node_0415       	66.19       	0.003846    	                	;				
 node_0416       	73.477545   	0.003846    	                	;				
 node_0417       	66.19       	0.003846    	                	;				
 node_0418       	54.558259   	0.003846    	                	;				
 node_0419       	60.283478   	0.003846    	                	;				
 node_0420       	60.484849   	0.003846    	                	;				
 node_0421       	60.519551   	0.003846    	                	;				
 node_0422       	62.752107   	0.003846    	                	;				
 node_0423       	59.77467    	0.003846    	                	;				
 node_0424       	56.052434   	0.003846    	                	;				
 node_0425       	60.283639   	0.003846    	                	;				
 node_0426       	60.296494   	0.003846    	                	;				
 node_0427       	59.311625   	0.003846    	                	;				
 node_0428       	59.740233   	0.003846    	                	;				
 node_0429       	53.506549   	0.007437    	                	;				
 node_0430       	61.92       	0.003846    	                	;				
 node_0431       	62.520893   	0.003846    	                	;				
 node_0432       	63.090593   	0.003846    	                	;				
 node_0433       	60.166913   	0.003846    	                	;				
 node_0434       	62.412439   	0.003846    	                	;				
 node_0435       	62.118923   	0.003846    	                	;				
 node_0436       	56.386095   	0.007437    	                	;				
 node_0437       	57.635      	0.003846    	                	;				
 node_0438       	68.905733   	0.007437    	                	;				
 node_0439       	66.556953   	0.007437    	                	;				
 node_0440       	61.039128   	0.003846    	                	;				
 node_0441       	73.893412   	0.003846    	                	;				
 node_0442       	66.584714   	0.007437    	                	;				
 node_0443       	66.552835   	0.007437    	                	;				
 node_0444       	72.056513   	0.003846    	                	;				
 node_0445       	56.002103   	0.007437    	                	;				
 node_0446       	65.31       	0.003846    	                	;				